
 OpenBabel06072500353D

 13 13  0  0  0  0  0  0  0  0999 V2000
    0.2217    1.2121   -0.0231 C   0  0  0  0  0  0  0  0  0  0  0  0
    1.6169    1.2034    0.0196 C   0  0  0  0  0  0  0  0  0  0  0  0
    2.3063   -0.0091    0.0475 C   0  0  0  0  0  0  0  0  0  0  0  0
    1.6049   -1.2144    0.0187 C   0  0  0  0  0  0  0  0  0  0  0  0
    0.2097   -1.2091   -0.0260 C   0  0  0  0  0  0  0  0  0  0  0  0
   -0.4859    0.0050   -0.0366 C   0  0  0  0  0  0  0  0  0  0  0  0
   -1.9185    0.0112   -0.0407 C   0  0  0  0  0  0  0  0  0  0  0  0
   -3.0799    0.0151   -0.0310 N   0  0  0  0  0  0  0  0  0  0  0  0
   -0.3074    2.1631   -0.0386 H   0  0  0  0  0  0  0  0  0  0  0  0
    2.1667    2.1415    0.0372 H   0  0  0  0  0  0  0  0  0  0  0  0
    3.3929   -0.0146    0.0932 H   0  0  0  0  0  0  0  0  0  0  0  0
    2.1449   -2.1582    0.0368 H   0  0  0  0  0  0  0  0  0  0  0  0
   -0.3290   -2.1544   -0.0451 H   0  0  0  0  0  0  0  0  0  0  0  0
  1  2  1  0  0  0  0
  1  6  2  0  0  0  0
  1  9  1  0  0  0  0
  2  3  2  0  0  0  0
  2 10  1  0  0  0  0
  3  4  1  0  0  0  0
  3 11  1  0  0  0  0
  4  5  2  0  0  0  0
  4 12  1  0  0  0  0
  5  6  1  0  0  0  0
  5 13  1  0  0  0  0
  6  7  1  0  0  0  0
  7  8  3  0  0  0  0
M  END
